
#======================================================================
# CRYSTAL DATA
#----------------------------------------------------------------------
data_VESTA_phase_1

_chemical_name_common                  'MA-Pb-I  Phonons/2015_MAPbI3/MAPbI3-Cu'
_cell_length_a                         17.635704
_cell_length_b                         17.146585
_cell_length_c                         12.722291
_cell_angle_alpha                      91.436066
_cell_angle_beta                       89.083038
_cell_angle_gamma                      90.490990
_cell_volume                           3845.291130
_space_group_name_H-M_alt              'P 1'
_space_group_IT_number                 1

loop_
_space_group_symop_operation_xyz
   'x, y, z'

loop_
   _atom_site_label
   _atom_site_occupancy
   _atom_site_fract_x
   _atom_site_fract_y
   _atom_site_fract_z
   _atom_site_adp_type
   _atom_site_U_iso_or_equiv
   _atom_site_type_symbol
   C1         1.0     0.199826     0.038538     0.240524    Uiso  ? C
   C2         1.0     0.722552     0.518247     0.240809    Uiso  ? C
   C3         1.0     0.701311     0.537317     0.740174    Uiso  ? C
   C4         1.0     0.982146     0.782310     0.704408    Uiso  ? C
   C5         1.0     0.220922     0.017138     0.741475    Uiso  ? C
   C6         1.0     0.483440     0.284603     0.208701    Uiso  ? C
   C7         1.0     0.981877     0.281516     0.705342    Uiso  ? C
   C8         1.0     0.199718     0.537390     0.243357    Uiso  ? C
   C9         1.0     0.222512     0.517622     0.739296    Uiso  ? C
   C10        1.0     0.481675     0.780476     0.205614    Uiso  ? C
   C11        1.0     0.722382     0.017076     0.238693    Uiso  ? C
   C12        1.0     0.699233     0.039184     0.743727    Uiso  ? C
   N1         1.0     0.273339     0.997616     0.242594    Uiso  ? N
   N2         1.0     0.774583     0.463354     0.290246    Uiso  ? N
   N3         1.0     0.775277     0.497176     0.741421    Uiso  ? N
   N4         1.0     0.015959     0.741094     0.792994    Uiso  ? N
   N5         1.0     0.274253     0.963629     0.791031    Uiso  ? N
   N6         1.0     0.522442     0.236954     0.286462    Uiso  ? N
   N7         1.0     0.018521     0.238261     0.789816    Uiso  ? N
   N8         1.0     0.274034     0.497883     0.237149    Uiso  ? N
   N9         1.0     0.274251     0.462935     0.789698    Uiso  ? N
   N10        1.0     0.517803     0.738193     0.291405    Uiso  ? N
   N11        1.0     0.773934     0.962624     0.289879    Uiso  ? N
   N12        1.0     0.772658     0.998049     0.736141    Uiso  ? N
   H1         1.0     0.169646     0.020221     0.168940    Uiso  ? H
   H2         1.0     0.727327     0.511252     0.154813    Uiso  ? H
   H3         1.0     0.670846     0.518551     0.669017    Uiso  ? H
   H4         1.0     0.006591     0.759065     0.630037    Uiso  ? H
   H5         1.0     0.223056     0.007374     0.655729    Uiso  ? H
   H6         1.0     0.502392     0.266175     0.129184    Uiso  ? H
   H7         1.0     0.004553     0.260549     0.628782    Uiso  ? H
   H8         1.0     0.165572     0.517892     0.175897    Uiso  ? H
   H9         1.0     0.226645     0.509212     0.653432    Uiso  ? H
   H10        1.0     0.504771     0.758676     0.129693    Uiso  ? H
   H11        1.0     0.726726     0.008220     0.152911    Uiso  ? H
   H12        1.0     0.663922     0.020191     0.677212    Uiso  ? H
   H13        1.0     0.210887     0.101771     0.240120    Uiso  ? H
   H14        1.0     0.738488     0.578150     0.264909    Uiso  ? H
   H15        1.0     0.711734     0.600651     0.739446    Uiso  ? H
   H16        1.0     0.994880     0.845045     0.713005    Uiso  ? H
   H17        1.0     0.237668     0.077630     0.761175    Uiso  ? H
   H18        1.0     0.497807     0.346451     0.223295    Uiso  ? H
   H19        1.0     0.994173     0.344155     0.716452    Uiso  ? H
   H20        1.0     0.209399     0.600790     0.240966    Uiso  ? H
   H21        1.0     0.239190     0.577688     0.761510    Uiso  ? H
   H22        1.0     0.493927     0.843211     0.215579    Uiso  ? H
   H23        1.0     0.739111     0.077228     0.260384    Uiso  ? H
   H24        1.0     0.710213     0.102347     0.740555    Uiso  ? H
   H25        1.0     0.166611     0.023555     0.311172    Uiso  ? H
   H26        1.0     0.664136     0.505460     0.267129    Uiso  ? H
   H27        1.0     0.668711     0.522087     0.811265    Uiso  ? H
   H28        1.0     0.920354     0.773005     0.706186    Uiso  ? H
   H29        1.0     0.163293     0.005403     0.771810    Uiso  ? H
   H30        1.0     0.421796     0.276059     0.217592    Uiso  ? H
   H31        1.0     0.920237     0.271491     0.709874    Uiso  ? H
   H32        1.0     0.171242     0.522336     0.317752    Uiso  ? H
   H33        1.0     0.164114     0.505891     0.766616    Uiso  ? H
   H34        1.0     0.420013     0.770501     0.209652    Uiso  ? H
   H35        1.0     0.663903     0.005535     0.265823    Uiso  ? H
   H36        1.0     0.671307     0.025085     0.818872    Uiso  ? H
   H37        1.0     0.306344     0.012419     0.177035    Uiso  ? H
   H38        1.0     0.831325     0.473727     0.268214    Uiso  ? H
   H39        1.0     0.807718     0.512254     0.675458    Uiso  ? H
   H40        1.0     0.074751     0.749119     0.794179    Uiso  ? H
   H41        1.0     0.330452     0.973466     0.766139    Uiso  ? H
   H42        1.0     0.581393     0.244116     0.280927    Uiso  ? H
   H43        1.0     0.077373     0.246436     0.788082    Uiso  ? H
   H44        1.0     0.303094     0.513474     0.168388    Uiso  ? H
   H45        1.0     0.330979     0.472426     0.766904    Uiso  ? H
   H46        1.0     0.576641     0.746500     0.290240    Uiso  ? H
   H47        1.0     0.830716     0.972151     0.267420    Uiso  ? H
   H48        1.0     0.801328     0.013018     0.666782    Uiso  ? H
   H49        1.0     0.266342     0.936989     0.242565    Uiso  ? H
   H50        1.0     0.761113     0.405155     0.271323    Uiso  ? H
   H51        1.0     0.768754     0.436507     0.741545    Uiso  ? H
   H52        1.0     0.006183     0.680892     0.786911    Uiso  ? H
   H53        1.0     0.260328     0.905057     0.775235    Uiso  ? H
   H54        1.0     0.511125     0.177302     0.275020    Uiso  ? H
   H55        1.0     0.008657     0.178119     0.781822    Uiso  ? H
   H56        1.0     0.268107     0.437162     0.237520    Uiso  ? H
   H57        1.0     0.260100     0.404642     0.772385    Uiso  ? H
   H58        1.0     0.508155     0.677966     0.284238    Uiso  ? H
   H59        1.0     0.759873     0.904266     0.272798    Uiso  ? H
   H60        1.0     0.765661     0.937448     0.736767    Uiso  ? H
   H61        1.0     0.302902     0.015071     0.310134    Uiso  ? H
   H62        1.0     0.772069     0.469358     0.371780    Uiso  ? H
   H63        1.0     0.805103     0.514995     0.808526    Uiso  ? H
   H64        1.0     0.993387     0.761055     0.865115    Uiso  ? H
   H65        1.0     0.273815     0.971866     0.872349    Uiso  ? H
   H66        1.0     0.505566     0.252120     0.363110    Uiso  ? H
   H67        1.0     0.998123     0.256394     0.863870    Uiso  ? H
   H68        1.0     0.306930     0.515673     0.301297    Uiso  ? H
   H69        1.0     0.272261     0.470209     0.871109    Uiso  ? H
   H70        1.0     0.496866     0.756959     0.364918    Uiso  ? H
   H71        1.0     0.771639     0.970151     0.371245    Uiso  ? H
   H72        1.0     0.806517     0.015215     0.799557    Uiso  ? H
   Pb1        1.0     0.240416     0.753545     0.489421    Uiso  ? Pb
   Pb2        1.0     0.741044     0.252788     0.494284    Uiso  ? Pb
   Pb3        1.0     0.740950     0.253615     0.988208    Uiso  ? Pb
   Pb4        1.0     0.992347     0.509282     0.492447    Uiso  ? Pb
   Pb5        1.0     0.986284     0.504684     0.992048    Uiso  ? Pb
   Pb6        1.0     0.240546     0.752587     0.994541    Uiso  ? Pb
   Pb7        1.0     0.485957     0.004476     0.491991    Uiso  ? Pb
   Pb8        1.0     0.491585     0.008824     0.991768    Uiso  ? Pb
   Pb9        1.0     0.992312     0.008909     0.491580    Uiso  ? Pb
   Pb10       1.0     0.985442     0.005112     0.991993    Uiso  ? Pb
   Pb11       1.0     0.241147     0.253739     0.489415    Uiso  ? Pb
   Pb12       1.0     0.240805     0.252331     0.995220    Uiso  ? Pb
   Pb13       1.0     0.485578     0.503791     0.491599    Uiso  ? Pb
   Pb14       1.0     0.492317     0.508523     0.991558    Uiso  ? Pb
   Pb15       1.0     0.740686     0.752185     0.495377    Uiso  ? Pb
   Pb16       1.0     0.739464     0.753515     0.989596    Uiso  ? Pb
   I1         1.0     0.248987     0.783863     0.240038    Uiso  ? I
   I2         1.0     0.724865     0.260585     0.239813    Uiso  ? I
   I3         1.0     0.748039     0.284234     0.739385    Uiso  ? I
   I4         1.0     0.968969     0.512505     0.240576    Uiso  ? I
   I5         1.0     0.989706     0.531227     0.742068    Uiso  ? I
   I6         1.0     0.219369     0.762053     0.741028    Uiso  ? I
   I7         1.0     0.488694     0.028311     0.241669    Uiso  ? I
   I8         1.0     0.468546     0.014058     0.740493    Uiso  ? I
   I9         1.0     0.968018     0.013639     0.240011    Uiso  ? I
   I10        1.0     0.988899     0.029272     0.741109    Uiso  ? I
   I11        1.0     0.248945     0.284483     0.240359    Uiso  ? I
   I12        1.0     0.221589     0.260781     0.741180    Uiso  ? I
   I13        1.0     0.489451     0.529825     0.241066    Uiso  ? I
   I14        1.0     0.468952     0.510845     0.739723    Uiso  ? I
   I15        1.0     0.720218     0.760969     0.241374    Uiso  ? I
   I16        1.0     0.749199     0.784242     0.740511    Uiso  ? I
   I17        1.0     0.389135     0.854260     0.970888    Uiso  ? I
   I18        1.0     0.903578     0.338580     0.992396    Uiso  ? I
   I19        1.0     0.889139     0.355041     0.472363    Uiso  ? I
   I20        1.0     0.087918     0.656091     0.018553    Uiso  ? I
   I21        1.0     0.085848     0.663238     0.465923    Uiso  ? I
   I22        1.0     0.403374     0.838698     0.494021    Uiso  ? I
   I23        1.0     0.584875     0.163881     0.971847    Uiso  ? I
   I24        1.0     0.588508     0.155689     0.517754    Uiso  ? I
   I25        1.0     0.087943     0.156084     0.018487    Uiso  ? I
   I26        1.0     0.085886     0.163045     0.467603    Uiso  ? I
   I27        1.0     0.388809     0.354578     0.971989    Uiso  ? I
   I28        1.0     0.404352     0.337264     0.492426    Uiso  ? I
   I29        1.0     0.585076     0.662914     0.965420    Uiso  ? I
   I30        1.0     0.588285     0.655216     0.519078    Uiso  ? I
   I31        1.0     0.901461     0.839964     0.995605    Uiso  ? I
   I32        1.0     0.888868     0.854648     0.470875    Uiso  ? I
   I33        1.0     0.137969     0.905729     0.479371    Uiso  ? I
   I34        1.0     0.636748     0.403905     0.492947    Uiso  ? I
   I35        1.0     0.638070     0.405704     0.981022    Uiso  ? I
   I36        1.0     0.830203     0.593707     0.505096    Uiso  ? I
   I37        1.0     0.829417     0.593762     0.979502    Uiso  ? I
   I38        1.0     0.135690     0.903812     0.995383    Uiso  ? I
   I39        1.0     0.328497     0.092455     0.481109    Uiso  ? I
   I40        1.0     0.329347     0.093082     0.005968    Uiso  ? I
   I41        1.0     0.830160     0.093971     0.502441    Uiso  ? I
   I42        1.0     0.828495     0.093110     0.975609    Uiso  ? I
   I43        1.0     0.137183     0.404751     0.482867    Uiso  ? I
   I44        1.0     0.137404     0.404639     0.995810    Uiso  ? I
   I45        1.0     0.329133     0.593244     0.476802    Uiso  ? I
   I46        1.0     0.330159     0.593976     0.002401    Uiso  ? I
   I47        1.0     0.637578     0.905000     0.497507    Uiso  ? I
   I48        1.0     0.636949     0.905195     0.981268    Uiso  ? I
   Cs1        1.0     0.026481     0.794987     0.242063    Uiso  ? Cs
   Cs2        1.0     0.525235     0.292178     0.743030    Uiso  ? Cs
   Cs3        1.0     0.526632     0.795010     0.741864    Uiso  ? Cs
   Cs4        1.0     0.026315     0.294385     0.242789    Uiso  ? Cs
