
#======================================================================
# CRYSTAL DATA
#----------------------------------------------------------------------
data_VESTA_phase_1

_chemical_name_common                  'MA-Pb-I  Phonons/2015_MAPbI3/MAPbI3-Cu'
_cell_length_a                         17.482351
_cell_length_b                         17.482758
_cell_length_c                         12.836725
_cell_angle_alpha                      90.607826
_cell_angle_beta                       89.392502
_cell_angle_gamma                      90.235344
_cell_volume                           3922.940366
_space_group_name_H-M_alt              'P 1'
_space_group_IT_number                 1

loop_
_space_group_symop_operation_xyz
   'x, y, z'

loop_
   _atom_site_label
   _atom_site_occupancy
   _atom_site_fract_x
   _atom_site_fract_y
   _atom_site_fract_z
   _atom_site_adp_type
   _atom_site_U_iso_or_equiv
   _atom_site_type_symbol
   C1         1.0     0.228774     0.025744     0.225139    Uiso  ? C
   C2         1.0     0.724249     0.521203     0.225099    Uiso  ? C
   C3         1.0     0.728774     0.525744     0.725139    Uiso  ? C
   C4         1.0     0.967917     0.782137     0.735209    Uiso  ? C
   C5         1.0     0.224249     0.021203     0.725099    Uiso  ? C
   C6         1.0     0.467917     0.282137     0.235209    Uiso  ? C
   C7         1.0     0.967448     0.278979     0.233357    Uiso  ? C
   C8         1.0     0.971111     0.282689     0.733390    Uiso  ? C
   C9         1.0     0.220426     0.529538     0.226548    Uiso  ? C
   C10        1.0     0.222984     0.526978     0.726080    Uiso  ? C
   C11        1.0     0.471111     0.782689     0.233390    Uiso  ? C
   C12        1.0     0.467448     0.778979     0.733357    Uiso  ? C
   C13        1.0     0.722984     0.026978     0.226080    Uiso  ? C
   C14        1.0     0.720426     0.029538     0.726548    Uiso  ? C
   N1         1.0     0.281963     0.971316     0.273581    Uiso  ? N
   N2         1.0     0.778641     0.467980     0.273548    Uiso  ? N
   N3         1.0     0.781963     0.471316     0.773582    Uiso  ? N
   N4         1.0     0.023985     0.725969     0.772584    Uiso  ? N
   N5         1.0     0.278641     0.967980     0.773548    Uiso  ? N
   N6         1.0     0.523985     0.225969     0.272584    Uiso  ? N
   N7         1.0     0.026234     0.224004     0.266419    Uiso  ? N
   N8         1.0     0.025934     0.223763     0.766458    Uiso  ? N
   N9         1.0     0.272367     0.477531     0.282129    Uiso  ? N
   N10        1.0     0.275821     0.474084     0.778258    Uiso  ? N
   N11        1.0     0.525934     0.723763     0.266458    Uiso  ? N
   N12        1.0     0.526234     0.724004     0.766419    Uiso  ? N
   N13        1.0     0.775821     0.974084     0.278258    Uiso  ? N
   N14        1.0     0.772367     0.977531     0.782129    Uiso  ? N
   H1         1.0     0.237380     0.024350     0.140181    Uiso  ? H
   H2         1.0     0.725686     0.512636     0.140134    Uiso  ? H
   H3         1.0     0.737380     0.524350     0.640181    Uiso  ? H
   H4         1.0     0.968607     0.781476     0.649512    Uiso  ? H
   H5         1.0     0.225686     0.012636     0.640134    Uiso  ? H
   H6         1.0     0.468607     0.281476     0.149512    Uiso  ? H
   H7         1.0     0.965841     0.279706     0.147771    Uiso  ? H
   H8         1.0     0.970452     0.284352     0.647805    Uiso  ? H
   H9         1.0     0.228441     0.521587     0.142101    Uiso  ? H
   H10        1.0     0.229598     0.520381     0.641227    Uiso  ? H
   H11        1.0     0.470452     0.784352     0.147805    Uiso  ? H
   H12        1.0     0.465841     0.779706     0.647771    Uiso  ? H
   H13        1.0     0.729598     0.020381     0.141227    Uiso  ? H
   H14        1.0     0.728441     0.021587     0.642101    Uiso  ? H
   H15        1.0     0.240946     0.083452     0.255816    Uiso  ? H
   H16        1.0     0.741099     0.580180     0.245110    Uiso  ? H
   H17        1.0     0.740946     0.583452     0.755816    Uiso  ? H
   H18        1.0     0.983518     0.839376     0.764462    Uiso  ? H
   H19        1.0     0.241099     0.080180     0.745110    Uiso  ? H
   H20        1.0     0.483519     0.339376     0.264462    Uiso  ? H
   H21        1.0     0.981944     0.336264     0.263508    Uiso  ? H
   H22        1.0     0.989031     0.338605     0.764847    Uiso  ? H
   H23        1.0     0.234134     0.588874     0.248985    Uiso  ? H
   H24        1.0     0.237190     0.585923     0.749894    Uiso  ? H
   H25        1.0     0.489031     0.838605     0.264847    Uiso  ? H
   H26        1.0     0.481944     0.836264     0.763508    Uiso  ? H
   H27        1.0     0.737190     0.085924     0.249894    Uiso  ? H
   H28        1.0     0.734134     0.088874     0.748985    Uiso  ? H
   H29        1.0     0.169782     0.008902     0.245087    Uiso  ? H
   H30        1.0     0.666521     0.509036     0.255712    Uiso  ? H
   H31        1.0     0.669782     0.508902     0.745087    Uiso  ? H
   H32        1.0     0.910641     0.766616     0.764415    Uiso  ? H
   H33        1.0     0.166521     0.009036     0.755712    Uiso  ? H
   H34        1.0     0.410642     0.266616     0.264415    Uiso  ? H
   H35        1.0     0.911472     0.261164     0.264725    Uiso  ? H
   H36        1.0     0.913771     0.268303     0.763446    Uiso  ? H
   H37        1.0     0.161065     0.515842     0.248878    Uiso  ? H
   H38        1.0     0.164019     0.512821     0.749861    Uiso  ? H
   H39        1.0     0.413771     0.768303     0.263446    Uiso  ? H
   H40        1.0     0.411472     0.761164     0.764725    Uiso  ? H
   H41        1.0     0.664019     0.012821     0.249861    Uiso  ? H
   H42        1.0     0.661065     0.015842     0.748878    Uiso  ? H
   H43        1.0     0.339142     0.984697     0.256436    Uiso  ? H
   H44        1.0     0.835154     0.478664     0.249625    Uiso  ? H
   H45        1.0     0.839142     0.484697     0.756436    Uiso  ? H
   H46        1.0     0.079646     0.738752     0.747161    Uiso  ? H
   H47        1.0     0.335154     0.978664     0.749625    Uiso  ? H
   H48        1.0     0.579646     0.238752     0.247161    Uiso  ? H
   H49        1.0     0.080753     0.239004     0.239217    Uiso  ? H
   H50        1.0     0.081278     0.235246     0.739217    Uiso  ? H
   H51        1.0     0.329839     0.489036     0.264436    Uiso  ? H
   H52        1.0     0.333025     0.485669     0.759321    Uiso  ? H
   H53        1.0     0.581278     0.735246     0.239217    Uiso  ? H
   H54        1.0     0.580753     0.739004     0.739217    Uiso  ? H
   H55        1.0     0.833025     0.985669     0.259321    Uiso  ? H
   H56        1.0     0.829839     0.989036     0.764436    Uiso  ? H
   H57        1.0     0.271272     0.914816     0.249619    Uiso  ? H
   H58        1.0     0.765251     0.410811     0.256365    Uiso  ? H
   H59        1.0     0.771272     0.414816     0.749619    Uiso  ? H
   H60        1.0     0.011133     0.670333     0.747131    Uiso  ? H
   H61        1.0     0.265251     0.910811     0.756365    Uiso  ? H
   H62        1.0     0.511133     0.170333     0.247131    Uiso  ? H
   H63        1.0     0.014662     0.168704     0.239095    Uiso  ? H
   H64        1.0     0.010849     0.169290     0.739180    Uiso  ? H
   H65        1.0     0.260870     0.420078     0.264319    Uiso  ? H
   H66        1.0     0.264202     0.416894     0.759281    Uiso  ? H
   H67        1.0     0.510849     0.669290     0.239180    Uiso  ? H
   H68        1.0     0.514662     0.668704     0.739095    Uiso  ? H
   H69        1.0     0.764202     0.916894     0.259281    Uiso  ? H
   H70        1.0     0.760870     0.920078     0.764319    Uiso  ? H
   H71        1.0     0.276335     0.971838     0.354316    Uiso  ? H
   H72        1.0     0.778095     0.473586     0.354284    Uiso  ? H
   H73        1.0     0.776335     0.471838     0.854316    Uiso  ? H
   H74        1.0     0.026621     0.723311     0.853849    Uiso  ? H
   H75        1.0     0.278095     0.973586     0.854285    Uiso  ? H
   H76        1.0     0.526621     0.223311     0.353849    Uiso  ? H
   H77        1.0     0.030514     0.219876     0.347532    Uiso  ? H
   H78        1.0     0.030002     0.219431     0.847571    Uiso  ? H
   H79        1.0     0.265742     0.484072     0.362345    Uiso  ? H
   H80        1.0     0.270895     0.478986     0.858836    Uiso  ? H
   H81        1.0     0.530002     0.719431     0.347571    Uiso  ? H
   H82        1.0     0.530514     0.719876     0.847532    Uiso  ? H
   H83        1.0     0.770895     0.978986     0.358836    Uiso  ? H
   H84        1.0     0.765742     0.984072     0.862345    Uiso  ? H
   Pb1        1.0     0.231662     0.761615     0.485866    Uiso  ? Pb
   Pb2        1.0     0.737240     0.263156     0.490400    Uiso  ? Pb
   Pb3        1.0     0.731662     0.261615     0.985866    Uiso  ? Pb
   Pb4        1.0     0.988315     0.518288     0.485860    Uiso  ? Pb
   Pb5        1.0     0.986779     0.512717     0.990420    Uiso  ? Pb
   Pb6        1.0     0.237240     0.763156     0.990400    Uiso  ? Pb
   Pb7        1.0     0.486779     0.012717     0.490420    Uiso  ? Pb
   Pb8        1.0     0.488315     0.018288     0.985860    Uiso  ? Pb
   Pb9        1.0     0.987187     0.013390     0.489197    Uiso  ? Pb
   Pb10       1.0     0.985785     0.013391     0.989193    Uiso  ? Pb
   Pb11       1.0     0.236531     0.264130     0.489201    Uiso  ? Pb
   Pb12       1.0     0.236548     0.262722     0.989186    Uiso  ? Pb
   Pb13       1.0     0.485785     0.513391     0.489193    Uiso  ? Pb
   Pb14       1.0     0.487187     0.513390     0.989197    Uiso  ? Pb
   Pb15       1.0     0.736548     0.762722     0.489186    Uiso  ? Pb
   Pb16       1.0     0.736531     0.764130     0.989201    Uiso  ? Pb
   I1         1.0     0.226910     0.774351     0.235874    Uiso  ? I
   I2         1.0     0.724485     0.269554     0.235608    Uiso  ? I
   I3         1.0     0.726910     0.274351     0.735874    Uiso  ? I
   I4         1.0     0.975586     0.523122     0.235883    Uiso  ? I
   I5         1.0     0.980386     0.525474     0.735615    Uiso  ? I
   I6         1.0     0.224485     0.769554     0.735608    Uiso  ? I
   I7         1.0     0.480386     0.025474     0.235615    Uiso  ? I
   I8         1.0     0.475586     0.023122     0.735883    Uiso  ? I
   I9         1.0     0.978572     0.020005     0.237237    Uiso  ? I
   I10        1.0     0.973124     0.021841     0.737281    Uiso  ? I
   I11        1.0     0.228139     0.276770     0.237277    Uiso  ? I
   I12        1.0     0.229889     0.271349     0.737240    Uiso  ? I
   I13        1.0     0.473124     0.521841     0.237281    Uiso  ? I
   I14        1.0     0.478572     0.520005     0.737237    Uiso  ? I
   I15        1.0     0.729889     0.771349     0.237240    Uiso  ? I
   I16        1.0     0.728139     0.776770     0.737277    Uiso  ? I
   I17        1.0     0.376808     0.875558     0.991243    Uiso  ? I
   I18        1.0     0.874364     0.373155     0.991301    Uiso  ? I
   I19        1.0     0.876808     0.375558     0.491243    Uiso  ? I
   I20        1.0     0.086951     0.662995     0.013666    Uiso  ? I
   I21        1.0     0.072778     0.677163     0.493433    Uiso  ? I
   I22        1.0     0.374364     0.873155     0.491301    Uiso  ? I
   I23        1.0     0.572778     0.177163     0.993433    Uiso  ? I
   I24        1.0     0.586951     0.162995     0.513666    Uiso  ? I
   I25        1.0     0.083934     0.165583     0.011211    Uiso  ? I
   I26        1.0     0.084311     0.166007     0.511222    Uiso  ? I
   I27        1.0     0.383487     0.366436     0.973719    Uiso  ? I
   I28        1.0     0.384554     0.365363     0.505415    Uiso  ? I
   I29        1.0     0.584311     0.666007     0.011222    Uiso  ? I
   I30        1.0     0.583934     0.665583     0.511211    Uiso  ? I
   I31        1.0     0.884554     0.865363     0.005415    Uiso  ? I
   I32        1.0     0.883487     0.866436     0.473719    Uiso  ? I
   I33        1.0     0.135900     0.916622     0.469211    Uiso  ? I
   I34        1.0     0.631119     0.411349     0.473523    Uiso  ? I
   I35        1.0     0.635900     0.416621     0.969211    Uiso  ? I
   I36        1.0     0.833275     0.613991     0.469270    Uiso  ? I
   I37        1.0     0.838560     0.618798     0.973501    Uiso  ? I
   I38        1.0     0.131119     0.911349     0.973523    Uiso  ? I
   I39        1.0     0.338560     0.118798     0.473501    Uiso  ? I
   I40        1.0     0.333275     0.113991     0.969270    Uiso  ? I
   I41        1.0     0.836473     0.114876     0.473033    Uiso  ? I
   I42        1.0     0.833297     0.113895     0.977697    Uiso  ? I
   I43        1.0     0.136040     0.416637     0.477702    Uiso  ? I
   I44        1.0     0.135037     0.413439     0.973081    Uiso  ? I
   I45        1.0     0.333296     0.613895     0.477697    Uiso  ? I
   I46        1.0     0.336473     0.614876     0.973033    Uiso  ? I
   I47        1.0     0.635037     0.913439     0.473081    Uiso  ? I
   I48        1.0     0.636040     0.916637     0.977702    Uiso  ? I
   Cs1        1.0     0.987738     0.762469     0.244005    Uiso  ? Cs
   Cs2        1.0     0.487738     0.262469     0.744005    Uiso  ? Cs
