
#======================================================================
# CRYSTAL DATA
#----------------------------------------------------------------------
data_VESTA_phase_1

_chemical_name_common                  'MA-Pb-I  Phonons/2015_MAPbI3/MAPbI3-Cu'
_cell_length_a                         17.713224
_cell_length_b                         17.711834
_cell_length_c                         12.757415
_cell_angle_alpha                      90.889526
_cell_angle_beta                       89.116028
_cell_angle_gamma                      90.461601
_cell_volume                           4001.349880
_space_group_name_H-M_alt              'P 1'
_space_group_IT_number                 1

loop_
_space_group_symop_operation_xyz
   'x, y, z'

loop_
   _atom_site_label
   _atom_site_occupancy
   _atom_site_fract_x
   _atom_site_fract_y
   _atom_site_fract_z
   _atom_site_adp_type
   _atom_site_U_iso_or_equiv
   _atom_site_type_symbol
   C1         1.0     0.223324     0.026550     0.229402    Uiso  ? C
   C2         1.0     0.723324     0.526550     0.229402    Uiso  ? C
   C3         1.0     0.723324     0.526550     0.729402    Uiso  ? C
   C5         1.0     0.973324     0.776550     0.729402    Uiso  ? C
   C6         1.0     0.223324     0.026550     0.729402    Uiso  ? C
   C7         1.0     0.473324     0.276550     0.229402    Uiso  ? C
   C8         1.0     0.973324     0.276550     0.229402    Uiso  ? C
   C9         1.0     0.973324     0.276550     0.729402    Uiso  ? C
   C10        1.0     0.223324     0.526550     0.229402    Uiso  ? C
   C11        1.0     0.223324     0.526550     0.729402    Uiso  ? C
   C12        1.0     0.473324     0.776550     0.229402    Uiso  ? C
   C13        1.0     0.473324     0.776550     0.729402    Uiso  ? C
   C14        1.0     0.723324     0.026550     0.229402    Uiso  ? C
   C15        1.0     0.723324     0.026550     0.729402    Uiso  ? C
   N1         1.0     0.277384     0.972624     0.273374    Uiso  ? N
   N2         1.0     0.777384     0.472624     0.273374    Uiso  ? N
   N3         1.0     0.777384     0.472624     0.773374    Uiso  ? N
   N5         1.0     0.027384     0.722624     0.773374    Uiso  ? N
   N6         1.0     0.277384     0.972624     0.773374    Uiso  ? N
   N7         1.0     0.527384     0.222624     0.273374    Uiso  ? N
   N8         1.0     0.027384     0.222624     0.273374    Uiso  ? N
   N9         1.0     0.027384     0.222624     0.773374    Uiso  ? N
   N10        1.0     0.277384     0.472624     0.273374    Uiso  ? N
   N11        1.0     0.277384     0.472624     0.773374    Uiso  ? N
   N12        1.0     0.527384     0.722624     0.273374    Uiso  ? N
   N13        1.0     0.527384     0.722624     0.773374    Uiso  ? N
   N14        1.0     0.777384     0.972624     0.273374    Uiso  ? N
   N15        1.0     0.777384     0.972624     0.773374    Uiso  ? N
   H1         1.0     0.226924     0.022871     0.143388    Uiso  ? H
   H2         1.0     0.726924     0.522871     0.143388    Uiso  ? H
   H3         1.0     0.726924     0.522871     0.643388    Uiso  ? H
   H5         1.0     0.976924     0.772871     0.643388    Uiso  ? H
   H6         1.0     0.226924     0.022871     0.643388    Uiso  ? H
   H7         1.0     0.476924     0.272871     0.143388    Uiso  ? H
   H8         1.0     0.976924     0.272871     0.143388    Uiso  ? H
   H9         1.0     0.976924     0.272871     0.643388    Uiso  ? H
   H10        1.0     0.226924     0.522871     0.143388    Uiso  ? H
   H11        1.0     0.226924     0.522871     0.643388    Uiso  ? H
   H12        1.0     0.476924     0.772871     0.143388    Uiso  ? H
   H13        1.0     0.476924     0.772871     0.643388    Uiso  ? H
   H14        1.0     0.726924     0.022871     0.143388    Uiso  ? H
   H15        1.0     0.726924     0.022871     0.643388    Uiso  ? H
   H16        1.0     0.238261     0.083937     0.256342    Uiso  ? H
   H17        1.0     0.738261     0.583937     0.256342    Uiso  ? H
   H18        1.0     0.738261     0.583937     0.756342    Uiso  ? H
   H20        1.0     0.988261     0.833937     0.756342    Uiso  ? H
   H21        1.0     0.238261     0.083937     0.756342    Uiso  ? H
   H22        1.0     0.488261     0.333937     0.256342    Uiso  ? H
   H23        1.0     0.988261     0.333937     0.256342    Uiso  ? H
   H24        1.0     0.988261     0.333937     0.756342    Uiso  ? H
   H25        1.0     0.238261     0.583937     0.256342    Uiso  ? H
   H26        1.0     0.238261     0.583937     0.756342    Uiso  ? H
   H27        1.0     0.488261     0.833937     0.256342    Uiso  ? H
   H28        1.0     0.488261     0.833937     0.756342    Uiso  ? H
   H29        1.0     0.738261     0.083937     0.256342    Uiso  ? H
   H30        1.0     0.738261     0.083937     0.756342    Uiso  ? H
   H31        1.0     0.165993     0.011533     0.256464    Uiso  ? H
   H32        1.0     0.665993     0.511533     0.256464    Uiso  ? H
   H33        1.0     0.665993     0.511533     0.756464    Uiso  ? H
   H35        1.0     0.915993     0.761533     0.756464    Uiso  ? H
   H36        1.0     0.165993     0.011533     0.756464    Uiso  ? H
   H37        1.0     0.415993     0.261533     0.256464    Uiso  ? H
   H38        1.0     0.915993     0.261533     0.256464    Uiso  ? H
   H39        1.0     0.915993     0.261533     0.756464    Uiso  ? H
   H40        1.0     0.165993     0.511533     0.256464    Uiso  ? H
   H41        1.0     0.165993     0.511533     0.756464    Uiso  ? H
   H42        1.0     0.415993     0.761533     0.256464    Uiso  ? H
   H43        1.0     0.415993     0.761533     0.756464    Uiso  ? H
   H44        1.0     0.665993     0.011533     0.256464    Uiso  ? H
   H45        1.0     0.665993     0.011533     0.756464    Uiso  ? H
   H46        1.0     0.332980     0.984834     0.249918    Uiso  ? H
   H47        1.0     0.832980     0.484834     0.249918    Uiso  ? H
   H48        1.0     0.832980     0.484834     0.749918    Uiso  ? H
   H50        1.0     0.082980     0.734834     0.749918    Uiso  ? H
   H51        1.0     0.332980     0.984834     0.749918    Uiso  ? H
   H52        1.0     0.582980     0.234834     0.249918    Uiso  ? H
   H53        1.0     0.082980     0.234834     0.249918    Uiso  ? H
   H54        1.0     0.082980     0.234834     0.749918    Uiso  ? H
   H55        1.0     0.332980     0.484834     0.249918    Uiso  ? H
   H56        1.0     0.332980     0.484834     0.749918    Uiso  ? H
   H57        1.0     0.582980     0.734834     0.249918    Uiso  ? H
   H58        1.0     0.582980     0.734834     0.749918    Uiso  ? H
   H59        1.0     0.832980     0.984834     0.249918    Uiso  ? H
   H60        1.0     0.832980     0.984834     0.749918    Uiso  ? H
   H61        1.0     0.265238     0.916986     0.250017    Uiso  ? H
   H62        1.0     0.765238     0.416986     0.250017    Uiso  ? H
   H63        1.0     0.765238     0.416986     0.750017    Uiso  ? H
   H65        1.0     0.015238     0.666986     0.750017    Uiso  ? H
   H66        1.0     0.265238     0.916986     0.750017    Uiso  ? H
   H67        1.0     0.515238     0.166986     0.250017    Uiso  ? H
   H68        1.0     0.015238     0.166986     0.250017    Uiso  ? H
   H69        1.0     0.015238     0.166986     0.750017    Uiso  ? H
   H70        1.0     0.265238     0.416986     0.250017    Uiso  ? H
   H71        1.0     0.265238     0.416986     0.750017    Uiso  ? H
   H72        1.0     0.515238     0.666986     0.250017    Uiso  ? H
   H73        1.0     0.515238     0.666986     0.750017    Uiso  ? H
   H74        1.0     0.765238     0.916986     0.250017    Uiso  ? H
   H75        1.0     0.765238     0.916986     0.750017    Uiso  ? H
   H76        1.0     0.277112     0.972964     0.355053    Uiso  ? H
   H77        1.0     0.777112     0.472964     0.355053    Uiso  ? H
   H78        1.0     0.777112     0.472964     0.855053    Uiso  ? H
   H80        1.0     0.027112     0.722964     0.855053    Uiso  ? H
   H81        1.0     0.277112     0.972964     0.855053    Uiso  ? H
   H82        1.0     0.527112     0.222964     0.355053    Uiso  ? H
   H83        1.0     0.027112     0.222964     0.355053    Uiso  ? H
   H84        1.0     0.027112     0.222964     0.855053    Uiso  ? H
   H85        1.0     0.277112     0.472964     0.355053    Uiso  ? H
   H86        1.0     0.277112     0.472964     0.855053    Uiso  ? H
   H87        1.0     0.527112     0.722964     0.355053    Uiso  ? H
   H88        1.0     0.527112     0.722964     0.855053    Uiso  ? H
   H89        1.0     0.777112     0.972964     0.355053    Uiso  ? H
   H90        1.0     0.777112     0.972964     0.855053    Uiso  ? H
   Pb1        1.0     0.236243     0.763764     0.489200    Uiso  ? Pb
   Pb2        1.0     0.736243     0.263764     0.489200    Uiso  ? Pb
   Pb3        1.0     0.736243     0.263764     0.989200    Uiso  ? Pb
   Pb4        1.0     0.986243     0.513764     0.489200    Uiso  ? Pb
   Pb5        1.0     0.986243     0.513764     0.989200    Uiso  ? Pb
   Pb6        1.0     0.236243     0.763764     0.989200    Uiso  ? Pb
   Pb7        1.0     0.486243     0.013764     0.489200    Uiso  ? Pb
   Pb8        1.0     0.486243     0.013764     0.989200    Uiso  ? Pb
   Pb9        1.0     0.986243     0.013764     0.489200    Uiso  ? Pb
   Pb10       1.0     0.986243     0.013764     0.989200    Uiso  ? Pb
   Pb11       1.0     0.236243     0.263764     0.489200    Uiso  ? Pb
   Pb12       1.0     0.236243     0.263764     0.989200    Uiso  ? Pb
   Pb13       1.0     0.486243     0.513764     0.489200    Uiso  ? Pb
   Pb14       1.0     0.486243     0.513764     0.989200    Uiso  ? Pb
   Pb15       1.0     0.736243     0.763764     0.489200    Uiso  ? Pb
   Pb16       1.0     0.736243     0.763764     0.989200    Uiso  ? Pb
   I1         1.0     0.227362     0.772666     0.237435    Uiso  ? I
   I2         1.0     0.727362     0.272666     0.237435    Uiso  ? I
   I3         1.0     0.727362     0.272666     0.737435    Uiso  ? I
   I4         1.0     0.977362     0.522666     0.237435    Uiso  ? I
   I5         1.0     0.977362     0.522666     0.737435    Uiso  ? I
   I6         1.0     0.227362     0.772666     0.737435    Uiso  ? I
   I7         1.0     0.477362     0.022666     0.237435    Uiso  ? I
   I8         1.0     0.477362     0.022666     0.737435    Uiso  ? I
   I9         1.0     0.977362     0.022666     0.237435    Uiso  ? I
   I10        1.0     0.977362     0.022666     0.737435    Uiso  ? I
   I11        1.0     0.227362     0.272666     0.237435    Uiso  ? I
   I12        1.0     0.227362     0.272666     0.737435    Uiso  ? I
   I13        1.0     0.477362     0.522666     0.237435    Uiso  ? I
   I14        1.0     0.477362     0.522666     0.737435    Uiso  ? I
   I15        1.0     0.727362     0.772666     0.237435    Uiso  ? I
   I16        1.0     0.727362     0.772666     0.737435    Uiso  ? I
   I17        1.0     0.349809     0.900231     0.011373    Uiso  ? I
   I18        1.0     0.849809     0.400231     0.011373    Uiso  ? I
   I19        1.0     0.849809     0.400231     0.511373    Uiso  ? I
   I20        1.0     0.099809     0.650231     0.011373    Uiso  ? I
   I21        1.0     0.099809     0.650231     0.511373    Uiso  ? I
   I22        1.0     0.349809     0.900231     0.511373    Uiso  ? I
   I23        1.0     0.599809     0.150231     0.011373    Uiso  ? I
   I24        1.0     0.599809     0.150231     0.511373    Uiso  ? I
   I25        1.0     0.099809     0.150231     0.011373    Uiso  ? I
   I26        1.0     0.099809     0.150231     0.511373    Uiso  ? I
   I27        1.0     0.349809     0.400231     0.011373    Uiso  ? I
   I28        1.0     0.349809     0.400231     0.511373    Uiso  ? I
   I29        1.0     0.599809     0.650231     0.011373    Uiso  ? I
   I30        1.0     0.599809     0.650231     0.511373    Uiso  ? I
   I31        1.0     0.849809     0.900231     0.011373    Uiso  ? I
   I32        1.0     0.849809     0.900231     0.511373    Uiso  ? I
   I33        1.0     0.108111     0.891892     0.461602    Uiso  ? I
   I34        1.0     0.608111     0.391892     0.461602    Uiso  ? I
   I35        1.0     0.608111     0.391892     0.961602    Uiso  ? I
   I36        1.0     0.858111     0.641892     0.461602    Uiso  ? I
   I37        1.0     0.858111     0.641892     0.961602    Uiso  ? I
   I38        1.0     0.108111     0.891892     0.961602    Uiso  ? I
   I39        1.0     0.358111     0.141892     0.461602    Uiso  ? I
   I40        1.0     0.358111     0.141892     0.961602    Uiso  ? I
   I41        1.0     0.858111     0.141892     0.461602    Uiso  ? I
   I42        1.0     0.858111     0.141892     0.961602    Uiso  ? I
   I43        1.0     0.108111     0.391892     0.461602    Uiso  ? I
   I44        1.0     0.108111     0.391892     0.961602    Uiso  ? I
   I45        1.0     0.358111     0.641892     0.461602    Uiso  ? I
   I46        1.0     0.358111     0.641892     0.961602    Uiso  ? I
   I47        1.0     0.608111     0.891892     0.461602    Uiso  ? I
   I48        1.0     0.608111     0.891892     0.961602    Uiso  ? I
