
#======================================================================
# CRYSTAL DATA
#----------------------------------------------------------------------
data_VESTA_phase_1

_chemical_name_common                  'MA-Pb-I  Phonons/2015_MAPbI3/MAPbI3-Cu'
_cell_length_a                         17.343689
_cell_length_b                         17.372252
_cell_length_c                         12.735000
_cell_angle_alpha                      90.117241
_cell_angle_beta                       89.818275
_cell_angle_gamma                      90.154305
_cell_volume                           3837.000549
_space_group_name_H-M_alt              'P 1'
_space_group_IT_number                 1

loop_
_space_group_symop_operation_xyz
   'x, y, z'

loop_
   _atom_site_label
   _atom_site_occupancy
   _atom_site_fract_x
   _atom_site_fract_y
   _atom_site_fract_z
   _atom_site_adp_type
   _atom_site_U_iso_or_equiv
   _atom_site_type_symbol
   C1         1.0     0.224235     0.028307     0.231339    Uiso  ? C
   C2         1.0     0.728988     0.532341     0.231810    Uiso  ? C
   C3         1.0     0.717566     0.528454     0.736176    Uiso  ? C
   C4         1.0     0.216641     0.028993     0.737057    Uiso  ? C
   C5         1.0     0.971079     0.273532     0.726966    Uiso  ? C
   C6         1.0     0.219004     0.536090     0.732201    Uiso  ? C
   C7         1.0     0.466540     0.770214     0.215796    Uiso  ? C
   C8         1.0     0.716035     0.025056     0.236299    Uiso  ? C
   N1         1.0     0.278435     0.973053     0.279510    Uiso  ? N
   N2         1.0     0.781934     0.476182     0.280364    Uiso  ? N
   N3         1.0     0.772627     0.471316     0.778194    Uiso  ? N
   N4         1.0     0.278845     0.978616     0.776151    Uiso  ? N
   N5         1.0     0.029933     0.218428     0.763684    Uiso  ? N
   N6         1.0     0.267235     0.476764     0.783021    Uiso  ? N
   N7         1.0     0.520062     0.719073     0.272836    Uiso  ? N
   N8         1.0     0.770191     0.969680     0.284212    Uiso  ? N
   H1         1.0     0.228061     0.023527     0.145379    Uiso  ? H
   H2         1.0     0.736510     0.530690     0.146097    Uiso  ? H
   H3         1.0     0.722266     0.529602     0.650140    Uiso  ? H
   H4         1.0     0.215766     0.026470     0.650835    Uiso  ? H
   H5         1.0     0.970441     0.273148     0.640560    Uiso  ? H
   H6         1.0     0.227396     0.533113     0.646653    Uiso  ? H
   H7         1.0     0.475105     0.761656     0.130979    Uiso  ? H
   H8         1.0     0.721144     0.021790     0.150344    Uiso  ? H
   H9         1.0     0.240035     0.086887     0.256562    Uiso  ? H
   H10        1.0     0.742946     0.590074     0.261994    Uiso  ? H
   H11        1.0     0.731947     0.585214     0.769316    Uiso  ? H
   H12        1.0     0.228326     0.088197     0.763612    Uiso  ? H
   H13        1.0     0.985424     0.331582     0.755708    Uiso  ? H
   H14        1.0     0.236559     0.593056     0.761731    Uiso  ? H
   H15        1.0     0.478910     0.830335     0.237123    Uiso  ? H
   H16        1.0     0.730626     0.083358     0.263851    Uiso  ? H
   H17        1.0     0.165409     0.014333     0.257893    Uiso  ? H
   H18        1.0     0.669352     0.516705     0.252627    Uiso  ? H
   H19        1.0     0.658913     0.511527     0.760052    Uiso  ? H
   H20        1.0     0.161473     0.008431     0.769530    Uiso  ? H
   H21        1.0     0.914268     0.256109     0.757521    Uiso  ? H
   H22        1.0     0.158144     0.525038     0.751912    Uiso  ? H
   H23        1.0     0.406844     0.755861     0.237870    Uiso  ? H
   H24        1.0     0.657006     0.010080     0.260911    Uiso  ? H
   H25        1.0     0.335687     0.985369     0.258997    Uiso  ? H
   H26        1.0     0.839777     0.489288     0.263912    Uiso  ? H
   H27        1.0     0.829982     0.484858     0.759364    Uiso  ? H
   H28        1.0     0.333293     0.996171     0.750082    Uiso  ? H
   H29        1.0     0.085005     0.232766     0.736457    Uiso  ? H
   H30        1.0     0.326136     0.485132     0.767799    Uiso  ? H
   H31        1.0     0.577676     0.731625     0.254570    Uiso  ? H
   H32        1.0     0.827688     0.980929     0.263794    Uiso  ? H
   H33        1.0     0.265976     0.916103     0.258144    Uiso  ? H
   H34        1.0     0.770586     0.419872     0.255500    Uiso  ? H
   H35        1.0     0.760827     0.415680     0.751108    Uiso  ? H
   H36        1.0     0.270988     0.920886     0.754078    Uiso  ? H
   H37        1.0     0.017371     0.162274     0.738871    Uiso  ? H
   H38        1.0     0.252784     0.421063     0.758410    Uiso  ? H
   H39        1.0     0.510559     0.660949     0.254559    Uiso  ? H
   H40        1.0     0.757229     0.912864     0.262747    Uiso  ? H
   H41        1.0     0.274945     0.975858     0.360998    Uiso  ? H
   H42        1.0     0.775881     0.475925     0.361697    Uiso  ? H
   H43        1.0     0.768435     0.469151     0.859733    Uiso  ? H
   H44        1.0     0.280934     0.979481     0.857851    Uiso  ? H
   H45        1.0     0.033836     0.215840     0.845745    Uiso  ? H
   H46        1.0     0.259646     0.477941     0.864176    Uiso  ? H
   H47        1.0     0.515223     0.723689     0.354293    Uiso  ? H
   H48        1.0     0.766569     0.972178     0.365760    Uiso  ? H
   Pb1        1.0     0.241755     0.762150     0.492412    Uiso  ? Pb
   Pb2        1.0     0.736304     0.265263     0.490893    Uiso  ? Pb
   Pb3        1.0     0.737804     0.265703     0.991269    Uiso  ? Pb
   Pb4        1.0     0.993599     0.514969     0.490095    Uiso  ? Pb
   Pb5        1.0     0.989056     0.517573     0.993833    Uiso  ? Pb
   Pb6        1.0     0.237107     0.762570     0.987437    Uiso  ? Pb
   Pb7        1.0     0.487590     0.017765     0.488159    Uiso  ? Pb
   Pb8        1.0     0.489086     0.019892     0.993254    Uiso  ? Pb
   Pb9        1.0     0.991096     0.012034     0.492709    Uiso  ? Pb
   Pb10       1.0     0.986916     0.008159     0.990956    Uiso  ? Pb
   Pb11       1.0     0.234836     0.262003     0.485784    Uiso  ? Pb
   Pb12       1.0     0.235907     0.263828     0.998115    Uiso  ? Pb
   Pb13       1.0     0.487494     0.511482     0.495445    Uiso  ? Pb
   Pb14       1.0     0.490079     0.517283     0.988350    Uiso  ? Pb
   Pb15       1.0     0.736339     0.761904     0.497761    Uiso  ? Pb
   Pb16       1.0     0.734610     0.765168     0.989341    Uiso  ? Pb
   I1         1.0     0.228865     0.772021     0.237277    Uiso  ? I
   I2         1.0     0.725364     0.274918     0.239672    Uiso  ? I
   I3         1.0     0.729285     0.267157     0.739584    Uiso  ? I
   I4         1.0     0.978585     0.540238     0.240743    Uiso  ? I
   I5         1.0     0.976138     0.509596     0.740306    Uiso  ? I
   I6         1.0     0.265194     0.774315     0.737161    Uiso  ? I
   I7         1.0     0.475442     0.032967     0.239217    Uiso  ? I
   I8         1.0     0.484698     0.024423     0.738398    Uiso  ? I
   I9         1.0     0.974825     0.000870     0.241571    Uiso  ? I
   I10        1.0     0.970377     0.021391     0.740755    Uiso  ? I
   I11        1.0     0.261183     0.266081     0.240709    Uiso  ? I
   I12        1.0     0.231034     0.274096     0.740003    Uiso  ? I
   I13        1.0     0.489658     0.514535     0.240217    Uiso  ? I
   I14        1.0     0.471283     0.494531     0.741135    Uiso  ? I
   I15        1.0     0.721087     0.770355     0.242902    Uiso  ? I
   I16        1.0     0.738002     0.788764     0.742425    Uiso  ? I
   I17        1.0     0.384170     0.872448     0.985409    Uiso  ? I
   I18        1.0     0.891396     0.363331     0.005510    Uiso  ? I
   I19        1.0     0.889638     0.364382     0.467430    Uiso  ? I
   I20        1.0     0.078692     0.675314     0.978560    Uiso  ? I
   I21        1.0     0.083012     0.673103     0.507029    Uiso  ? I
   I22        1.0     0.398742     0.858682     0.479128    Uiso  ? I
   I23        1.0     0.579408     0.177075     0.985789    Uiso  ? I
   I24        1.0     0.578367     0.175738     0.494396    Uiso  ? I
   I25        1.0     0.081947     0.166495     0.020345    Uiso  ? I
   I26        1.0     0.076124     0.172549     0.483792    Uiso  ? I
   I27        1.0     0.389788     0.362846     0.994925    Uiso  ? I
   I28        1.0     0.392679     0.356649     0.487585    Uiso  ? I
   I29        1.0     0.576829     0.675320     0.977417    Uiso  ? I
   I30        1.0     0.580853     0.668199     0.527166    Uiso  ? I
   I31        1.0     0.894804     0.853186     0.999413    Uiso  ? I
   I32        1.0     0.891750     0.857561     0.487075    Uiso  ? I
   I33        1.0     0.143993     0.917368     0.483819    Uiso  ? I
   I34        1.0     0.645689     0.421309     0.485287    Uiso  ? I
   I35        1.0     0.644455     0.421523     0.987373    Uiso  ? I
   I36        1.0     0.836351     0.612649     0.498151    Uiso  ? I
   I37        1.0     0.834185     0.614453     0.969703    Uiso  ? I
   I38        1.0     0.142129     0.917886     0.980681    Uiso  ? I
   I39        1.0     0.329087     0.105627     0.495958    Uiso  ? I
   I40        1.0     0.334540     0.115360     0.972772    Uiso  ? I
   I41        1.0     0.833082     0.109070     0.478543    Uiso  ? I
   I42        1.0     0.835319     0.112540     0.998309    Uiso  ? I
   I43        1.0     0.146452     0.420689     0.476671    Uiso  ? I
   I44        1.0     0.144507     0.423565     0.999697    Uiso  ? I
   I45        1.0     0.336000     0.609411     0.471472    Uiso  ? I
   I46        1.0     0.330380     0.606119     0.994486    Uiso  ? I
   I47        1.0     0.644338     0.922786     0.501118    Uiso  ? I
   I48        1.0     0.640074     0.921437     0.974609    Uiso  ? I
   Cs1        1.0     0.004710     0.768600     0.247089    Uiso  ? Cs
   Cs2        1.0     0.476866     0.261085     0.742492    Uiso  ? Cs
   Cs3        1.0     0.504505     0.800361     0.745768    Uiso  ? Cs
   Cs4        1.0     0.945525     0.225613     0.242804    Uiso  ? Cs
   Cs5        1.0     0.953496     0.735738     0.741629    Uiso  ? Cs
   Cs6        1.0     0.737413     0.028644     0.741220    Uiso  ? Cs
   Cs7        1.0     0.492090     0.268082     0.240421    Uiso  ? Cs
   Cs8        1.0     0.263337     0.490862     0.238098    Uiso  ? Cs
